80

N	1.557114	1.557114	1.557114
N	-1.557114	-1.557114	1.557114
N	-1.557114	1.557114	-1.557114
N	1.557114	-1.557114	-1.557114
N	-1.557114	1.557114	1.557114
N	1.557114	-1.557114	1.557114
N	1.557114	1.557114	-1.557114
N	-1.557114	-1.557114	-1.557114
C	2.589873	0.689128	2.110081
C	2.110081	2.589873	0.689128
C	0.689128	2.110081	2.589873
C	-0.689128	-2.110081	2.589873
C	-2.589873	-0.689128	2.110081
C	-2.110081	-2.589873	0.689128
C	-2.589873	0.689128	-2.110081
C	-2.110081	2.589873	-0.689128
C	-0.689128	2.110081	-2.589873
C	0.689128	-2.110081	-2.589873
C	2.589873	-0.689128	-2.110081
C	2.110081	-2.589873	-0.689128
C	-0.689128	2.589873	2.110081
C	-2.589873	2.110081	0.689128
C	-2.110081	0.689128	2.589873
C	2.589873	-2.110081	0.689128
C	2.110081	-0.689128	2.589873
C	0.689128	-2.589873	2.110081
C	0.689128	2.589873	-2.110081
C	2.589873	2.110081	-0.689128
C	2.110081	0.689128	-2.589873
C	-0.689128	-2.589873	-2.110081
C	-2.589873	-2.110081	-0.689128
C	-2.110081	-0.689128	-2.589873
H	3.355712	0.544873	1.346848
H	1.346848	3.355712	0.544873
H	0.544873	1.346848	3.355712
H	-0.544873	-1.346848	3.355712
H	-3.355712	-0.544873	1.346848
H	-1.346848	-3.355712	0.544873
H	-3.355712	0.544873	-1.346848
H	-1.346848	3.355712	-0.544873
H	-0.544873	1.346848	-3.355712
H	0.544873	-1.346848	-3.355712
H	3.355712	-0.544873	-1.346848
H	1.346848	-3.355712	-0.544873
H	-0.544873	3.355712	1.346848
H	-3.355712	1.346848	0.544873
H	-1.346848	0.544873	3.355712
H	3.355712	-1.346848	0.544873
H	1.346848	-0.544873	3.355712
H	0.544873	-3.355712	1.346848
H	0.544873	3.355712	-1.346848
H	3.355712	1.346848	-0.544873
H	1.346848	0.544873	-3.355712
H	-0.544873	-3.355712	-1.346848
H	-3.355712	-1.346848	-0.544873
H	-1.346848	-0.544873	-3.355712
H	3.111303	1.170086	2.963793
H	2.963793	3.111303	1.170086
H	1.170086	2.963793	3.111303
H	-1.170086	-2.963793	3.111303
H	-3.111303	-1.170086	2.963793
H	-2.963793	-3.111303	1.170086
H	-3.111303	1.170086	-2.963793
H	-2.963793	3.111303	-1.170086
H	-1.170086	2.963793	-3.111303
H	1.170086	-2.963793	-3.111303
H	3.111303	-1.170086	-2.963793
H	2.963793	-3.111303	-1.170086
H	-1.170086	3.111303	2.963793
H	-3.111303	2.963793	1.170087
H	-2.963793	1.170086	3.111303
H	3.111303	-2.963793	1.170086
H	2.963793	-1.170086	3.111304
H	1.170086	-3.111303	2.963793
H	1.170086	3.111303	-2.963793
H	3.111303	2.963793	-1.170086
H	2.963793	1.170086	-3.111303
H	-1.170086	-3.111303	-2.963793
H	-3.111303	-2.963793	-1.170086
H	-2.963793	-1.170086	-3.111303
