16

C	-0.507572	-0.327896	0.495262
C	0.507572	0.327896	-0.495262
C	-0.037441	-0.064105	1.920840
C	0.037441	0.064105	-1.920840
O	-0.533891	1.056161	2.456233
O	0.533891	-1.056161	-2.456233
H	-0.138404	1.157228	3.336273
H	0.138404	-1.157228	-3.336273
O	0.716272	-0.815536	2.491424
O	-0.716272	0.815536	-2.491424
H	-1.489079	0.124489	0.336110
H	1.489079	-0.124489	-0.336110
O	-0.615203	-1.714598	0.283508
O	0.615203	1.714598	-0.283508
H	0.087210	-2.128881	0.804496
H	-0.087210	2.128881	-0.804496
