17

C	0.000000	0.000000	0.000000
C	1.256997	0.000000	0.888831
C	-1.256996	0.000000	0.888831
C	0.000000	1.256996	-0.888831
C	0.000000	-1.256997	-0.888831
H	2.168443	0.000000	0.282863
Cl	1.301929	1.458517	1.951929
H	1.284236	-0.884207	1.533320
H	-2.168443	0.000000	0.282864
Cl	-1.301929	-1.458517	1.951930
H	-1.284236	0.884207	1.533321
Cl	-1.458517	1.301929	-1.951930
H	0.000000	2.168443	-0.282864
H	0.884207	1.284236	-1.533321
H	-0.884207	-1.284236	-1.533320
Cl	1.458516	-1.301929	-1.951930
H	0.000000	-2.168443	-0.282863
